** ValveSpring FEA - Preload + Valve Lift (2-step, self-contact)
** Drawing A177 053 05 00  |  Material: VD SiCrNi SC  E=273131.0 MPa  nu=0.3
** Step 1: Assembly preload  0 -> 7.9 mm  (39.471 -> 31.6 mm)  F=249 N
** Step 2: Valve lift  7.9 -> 17.9 mm  (31.6 -> 21.6 mm)  F=621 N
**
*INCLUDE, INPUT=ValveSpring_oval_mesh.inp
**
*NSET, NSET=NBOT
1, 3, 6, 10, 12, 13, 14, 15, 16, 17, 307, 308, 309, 310, 311, 602
603, 604, 605, 606, 607, 608, 609, 610, 611, 612, 613, 614, 615, 616, 617, 618
619, 620, 621, 622, 623, 624, 625, 626, 627, 628, 629, 630, 631, 632, 633, 634
635, 636, 637, 638, 639, 640, 641, 642, 643, 644, 645, 646, 647, 648, 649, 650
651, 652, 653, 654, 655, 656, 657, 658, 659, 660, 661, 662, 663, 664, 665, 666
667, 668, 669, 670, 671, 672, 673, 674, 675, 676, 677, 678, 679, 680, 681, 1235
1236, 1237, 1238, 1239, 1240, 1241, 1242, 1243, 1244, 1830, 1831, 1832, 1833, 1834, 1835, 1836
2287, 2288, 2289, 2290, 2291, 2292, 2293, 2294, 2745, 2746, 2747, 2748, 2749, 2750, 2751, 2752
2753, 2754, 2755, 2756, 2757, 2758, 2759, 2760, 2761, 2762, 2763, 2764, 2765, 2766, 2767, 2768
2769, 2770, 2771, 2772, 2773, 2774, 2775, 2776, 2777, 2778, 2779, 2780, 2781, 2782, 2783, 2784
2785, 2786, 2787, 2788, 2789, 2790, 2791, 2792, 2793, 2794, 2795, 2796, 2797, 2935, 2936, 2937
2938, 2939, 2940, 2941, 2942, 2943, 2944, 2945, 2946, 2947, 2948, 2949, 2950, 2951, 2952, 2953
2954, 2955, 2956, 2957, 2958, 2959, 2960, 2961, 2962, 2963, 2964, 2965, 2966, 2967, 2968, 2969
2970, 2971, 2972, 2973, 2974, 2975, 2976, 2977, 2980, 3630, 3631, 3632, 3633, 3634, 3635, 3636
3637, 3638, 3639, 3640, 3641, 3642, 3643, 3644, 3645, 3646, 3647, 3648, 3649, 3650, 3651, 3652
3653, 3654, 3655, 3656, 3657, 3658, 3659, 3660, 3661, 3664, 3698, 3699, 3914, 3922, 3923, 3939
4245, 4391, 4470, 4941, 5373, 5402, 5406, 5410, 5421, 5422, 5423, 5424, 5425, 5426, 5427, 5428
5429, 5430, 5431, 5432, 5433, 5434, 5435, 5436, 5437, 5438, 5439, 5440, 5441, 5443, 5444, 6881
6882, 6883, 6884, 6885, 6886, 6887, 6888, 6889, 6890, 6891, 6892, 6893, 6894, 6895, 6896, 6897
6898, 6899, 6900, 6901, 6902, 6903, 6904, 6905, 6906, 6907, 6908, 6909, 6911, 6912, 6913, 6914
** ... 81 like lines cut
*NSET, NSET=NTOP
4, 5, 7, 8, 9, 1228, 1229, 1230, 1231, 1232, 1233, 1234, 1790, 1791, 1792, 1793
1794, 1795, 1796, 1797, 1798, 1799, 1800, 1801, 1802, 1803, 1804, 1805, 1806, 1807, 1808, 1809
1810, 1811, 1812, 1813, 1814, 1815, 1816, 1817, 1818, 1819, 1820, 1821, 1822, 1823, 1824, 1829
2281, 2282, 2283, 2284, 2285, 2286, 2739, 2740, 2741, 2742, 2743, 2744, 2799, 2801, 2802, 2803
2804, 2805, 2806, 2807, 2808, 2809, 2810, 2811, 2812, 2813, 2814, 2815, 2816, 2817, 2818, 2819
2820, 2821, 2822, 2823, 2824, 2825, 2826, 2827, 2828, 2829, 2830, 2831, 2832, 2833, 2834, 2835
2836, 2837, 2838, 2839, 2840, 2841, 2842, 2843, 2844, 2845, 2846, 2847, 2848, 2849, 2850, 2851
2852, 2853, 2854, 2855, 2856, 2857, 2858, 2859, 2860, 2861, 2862, 2863, 2864, 2865, 2866, 2867
2868, 2869, 2870, 2871, 2872, 2873, 2874, 2875, 2876, 2877, 2878, 2879, 2880, 2881, 2882, 2883
2884, 2885, 2886, 2887, 2888, 2889, 2890, 2891, 2892, 2893, 2894, 2895, 2896, 2897, 2898, 2899
2900, 2901, 2902, 2903, 2904, 2905, 2906, 2907, 2908, 2909, 2910, 2911, 2912, 2913, 2914, 2915
2916, 2917, 2918, 2919, 2920, 2921, 2922, 2923, 2924, 2925, 2926, 2927, 2928, 2929, 2930, 2931
2932, 2933, 2934, 3302, 3303, 3304, 3305, 3626, 3627, 3628, 3629, 3952, 5401, 5411, 5412, 5413
5414, 5416, 5417, 5418, 8675, 8676, 8679, 8680, 8682, 8683, 8685, 8686, 8692, 8693, 8694, 8696
8697, 8699, 8700, 8702, 8703, 8705, 8706, 8708, 8709, 8711, 8712, 8716, 8717, 8718, 8722, 12531
12532, 12533, 12534, 12536, 12537, 15300, 15301, 15302, 15303, 15305, 15306, 15307, 15308, 15309, 15310, 15313
15314, 15315, 15316, 15318, 15319, 15323, 15324, 16268, 16269, 16270, 16271, 16273, 16274, 16275, 16276, 16277
16278, 16279, 16280, 16281, 16282, 16283, 16284, 16285, 16286, 16287, 16288, 16289, 16290, 16291, 16292, 16293
16294, 16295, 16296, 16297, 16298, 16299, 16300, 16301, 16302, 16303, 16304, 16305, 16306, 16307, 16308, 16309
16310, 16311, 16312, 16313, 16314, 16315, 16316, 16317, 16318, 16319, 16320, 16321, 16322, 16323, 16324, 16325
** ... 65 like lines cut
**
*MATERIAL, NAME=SPRING_STEEL
*ELASTIC
273131.0, 0.3
**
*SOLID SECTION, ELSET=EVOLUMES, MATERIAL=SPRING_STEEL
**
** Self-contact surface: 8404 exterior faces (free faces only)
*SURFACE, NAME=SPRING_SURF, TYPE=ELEMENT
17673, S1
17674, S1
17676, S1
17680, S1
17686, S1
17687, S1
17689, S1
17690, S1
17692, S1
17702, S1
17705, S1
17709, S1
17711, S1
17715, S1
17721, S1
17725, S1
17728, S1
17730, S1
17731, S1
17736, S1
** ... 8384 like lines cut
** Contact pair: same surface on both sides = self-contact
*CONTACT PAIR, INTERACTION=COIL_CONTACT, TYPE=SURFACE TO SURFACE
SPRING_SURF, SPRING_SURF
*SURFACE INTERACTION, NAME=COIL_CONTACT
*SURFACE BEHAVIOR, PRESSURE-OVERCLOSURE=LINEAR
50.
**
** Step 1: Assembly preload  0 -> 7.9 mm  (39.471 mm -> 31.6 mm)
*STEP, NLGEOM=YES, INC=500
*STATIC
0.5, 7.9, 0.5, 0.5
**
** Bottom face: fully fixed
*BOUNDARY
NBOT, 1, 3, 0.0
** Top face: X/Y fixed, Z compressed to preload
NTOP, 1, 2, 0.0
NTOP, 3, 3, -7.9
**
*NODE PRINT, NSET=NBOT, TOTALS=YES, FREQUENCY=5
RF
**
*OUTPUT, FIELD, FREQUENCY=5
*NODE OUTPUT
U, RF
*ELEMENT OUTPUT
S, MISES
*CONTACT OUTPUT
CSTRESS, CDISP
**
*END STEP
**
** Step 2: Valve lift  7.9 -> 17.9 mm  (31.6 mm -> 21.6 mm)
*STEP, NLGEOM=YES, INC=1000
*STATIC
0.5, 10.0, 0.5, 0.5
**
*BOUNDARY, OP=NEW
NBOT, 1, 3, 0.0
NTOP, 1, 2, 0.0
NTOP, 3, 3, -17.9
**
*NODE PRINT, NSET=NBOT, TOTALS=YES, FREQUENCY=5
RF
**
*OUTPUT, FIELD, FREQUENCY=5
*NODE OUTPUT
U, RF
*ELEMENT OUTPUT
S, MISES
*CONTACT OUTPUT
CSTRESS, CDISP
**
*END STEP
