** ValveSpring FEA - Force vs Lift (with self-contact for coil binding)
** Material: VD SiCrNi SC  E=206000.0 MPa  nu=0.3
** Compression ramp 0 -> 20.0 mm  (0.5 mm increments, contact)
**
*INCLUDE, INPUT=ValveSpring_mesh.inp
**
*NSET, NSET=NBOT
1, 2, 3, 9, 11, 12, 13, 14, 15, 16, 17, 18, 19, 20, 21, 22
23, 24, 25, 26, 27, 407, 408, 409, 410, 849, 850, 851, 852, 853, 854, 855
856, 857, 858, 859, 860, 861, 862, 863, 864, 865, 866, 867, 868, 869, 870, 871
872, 873, 874, 875, 876, 877, 878, 879, 880, 881, 882, 883, 884, 885, 886, 887
888, 889, 890, 891, 892, 893, 894, 895, 896, 897, 898, 899, 900, 901, 902, 903
904, 905, 906, 1014, 1129, 1245, 1273, 1555, 3181, 3215, 3216, 3220, 3221, 3225, 3226, 3230
3231, 3235, 3236, 3240, 3241, 3245, 3250, 3269, 3275, 3277, 5644, 5645, 5649, 5650, 5652, 5653
5654, 5655, 5656, 5657, 5658, 5924, 5925, 6030, 6031, 6032, 6033, 6402, 6688, 6869, 6875, 6964
10794, 10795, 10796, 10797, 10798, 10799, 10800, 10801, 10802, 10803, 10804, 10805, 10806, 10807, 10808, 10809
10810, 10811, 10812, 10813, 10814, 10815, 10816, 10817, 10818, 10819, 10820, 10821, 10822, 10823, 10824, 10825
10826, 10827, 10828, 10829, 10830, 10831, 10832, 10833, 10834, 10835, 10836, 10837, 10838, 10839, 10840, 10841
10842, 10843, 10844, 10845, 10846, 10847, 10848, 10849, 10850, 10851, 10852, 10853, 10854, 10855, 10856, 10857
10858, 10859, 10860, 10861, 10862, 10863, 10864, 10865, 10866, 10867, 10868, 10869, 10870, 10871, 10872, 10873
10874, 10875, 10876, 10877, 10878, 10879, 10880, 10881, 10882, 10883, 10884, 10885, 10886, 10887, 10888, 10889
10890, 10891, 10892, 10893, 10894, 10895, 10896, 10897, 10898, 10899, 10900, 10901, 10902, 10903, 10904, 10905
10906, 10907, 10908, 10909, 10910, 10911, 10912, 10913, 10914, 10915, 10916, 10917, 10918, 10919, 10920, 10921
10922, 10923, 10924, 10925, 10926, 10927, 10928, 10929, 10930, 10931, 10932, 10933, 10934, 10935, 10936, 10937
10938, 10939, 10940, 10941, 10942, 10943, 10944, 10945, 10946, 10947, 10948, 10949, 10950, 10951, 10952, 10953
10954, 10955, 10956, 10957, 10958, 10959, 10960, 10961, 11110, 11249, 14467, 14547, 14550, 14557, 14585, 14586
14623, 14624, 14632, 14640, 14643, 14644, 14648, 14650, 14651, 14660, 14662, 14680, 14699, 14700, 14701, 14712
14713, 14714, 14718, 14721, 14748
*NSET, NSET=NTOP
4, 5, 6, 405, 406, 787, 788, 789, 790, 791, 792, 793, 794, 795, 796, 797
798, 799, 800, 801, 802, 803, 804, 805, 806, 807, 808, 809, 810, 811, 812, 813
814, 815, 816, 817, 818, 819, 820, 821, 822, 823, 824, 825, 826, 827, 828, 829
830, 831, 832, 835, 837, 838, 839, 840, 841, 842, 843, 844, 845, 846, 847, 848
907, 908, 909, 996, 1109, 1298, 1460, 3185, 3191, 3192, 3195, 3196, 5500, 5513, 5517, 5518
5522, 5526, 5527, 5531, 5532, 5536, 5537, 5542, 5543, 5544, 5545, 5546, 5547, 5548, 5549, 5927
5928, 5983, 5985, 5986, 5987, 6335, 10962, 10963, 10964, 10965, 10966, 10967, 10968, 10969, 10970, 10971
10972, 10973, 10974, 10975, 10976, 10977, 10978, 10979, 10980, 10981, 10982, 10983, 10984, 10985, 10986, 10987
10988, 10989, 10990, 10991, 10992, 10993, 10994, 10995, 10996, 10997, 10998, 10999, 11000, 11001, 11002, 11003
11004, 11005, 11006, 11007, 11008, 11009, 11010, 11011, 11012, 11013, 11014, 11015, 11016, 11017, 11018, 11019
11020, 11021, 11022, 11023, 11024, 11025, 11026, 11027, 11028, 11029, 11030, 11031, 11032, 11033, 11034, 11035
11036, 11037, 11038, 11039, 11040, 11041, 11042, 11043, 11044, 11045, 11046, 11047, 11048, 11049, 11050, 11051
11052, 11053, 11054, 11055, 11056, 11057, 11058, 11059, 11060, 11061, 11062, 11063, 11064, 11065, 11066, 11067
11068, 11069, 11070, 11071, 11072, 11073, 11074, 11075, 11076, 11077, 11078, 11079, 11080, 11081, 11082, 11083
11084, 11085, 11086, 11087, 11088, 11089, 11090, 14562, 14563, 14570, 14571, 14575, 14582, 14621, 14622, 14628
14630, 14638, 14654, 14655, 14656, 14663, 14664, 14668, 14685, 14690, 14696, 14709, 14715, 14717
**
*MATERIAL, NAME=SPRING_STEEL
*ELASTIC
206000.0, 0.3
**
*SOLID SECTION, ELSET=EVOLUMES, MATERIAL=SPRING_STEEL
**
** Self-contact surface: 5544 exterior faces (free faces only)
*SURFACE, NAME=SPRING_SURF, TYPE=ELEMENT
6001, S2
6003, S1
6004, S3
6006, S2
6010, S2
6014, S3
6015, S3
6016, S1
6018, S3
6019, S2
6021, S3
6022, S1
6023, S1
6024, S3
6025, S4
6026, S1
6027, S3
6028, S4
6029, S3
6030, S3
** ... 5524 like lines cut
** Contact pair: same surface on both sides = self-contact
*CONTACT PAIR, INTERACTION=COIL_CONTACT, TYPE=SURFACE TO SURFACE
SPRING_SURF, SPRING_SURF
*SURFACE INTERACTION, NAME=COIL_CONTACT
*SURFACE BEHAVIOR, PRESSURE-OVERCLOSURE=HARD
** Steel-on-steel friction (dry): mu=0.12, stick slope 1e-3 mm
*FRICTION
0.12, 1.E-3
**
*STEP, NLGEOM, INC=500
*STATIC
0.5, 20.0, 0.01, 1.0
**
** Bottom face: fully fixed
*BOUNDARY
NBOT, 1, 3, 0.0
** Top face: X/Y fixed, Z compressed
NTOP, 1, 2, 0.0
NTOP, 3, 3, -20.0
**
*NODE PRINT, NSET=NBOT, TOTALS=YES, FREQUENCY=1
RF
*NODE FILE, FREQUENCY=5
U
*EL FILE, FREQUENCY=5
S
*CONTACT FILE, FREQUENCY=5
CSTRESS, CDISP
**
*END STEP
