** ValveSpring FEA - Preload + Valve Lift (2-step, self-contact)
** Drawing A177 053 05 00  |  Material: VD SiCrNi SC  E=177500.0 MPa  nu=0.3
** Step 1: Assembly preload  0 -> 11.5 mm  (47.58 -> 36.1 mm)  F=250 N
** Step 2: Valve lift  11.5 -> 21.5 mm  (36.1 -> 26.1 mm)  F=621 N
**
*INCLUDE, INPUT=ValveSpring_250N_mesh.inp
**
*NSET, NSET=NBOT
1, 2, 3, 11, 12, 13, 14, 15, 16, 17, 18, 19, 20, 21, 22, 23
24, 25, 26, 27, 28, 29, 30, 31, 32, 33, 34, 35, 36, 37, 38, 39
40, 41, 42, 43, 44, 45, 46, 47, 48, 49, 50, 51, 52, 53, 1179, 1180
1181, 1182, 1183, 1184, 1185, 1186, 1187, 1188, 1189, 1190, 1191, 1192, 1193, 1194, 1195, 1196
1197, 1198, 1199, 1200, 1201, 1202, 1203, 1204, 1205, 1206, 1207, 1208, 1209, 1210, 1211, 1212
1213, 1214, 1215, 1216, 1217, 1218, 1219, 1220, 1221, 1222, 1223, 1224, 1225, 1226, 1227, 1228
1229, 1230, 1231, 1232, 1233, 1234, 1235, 1236, 1237, 1238, 1239, 1240, 1241, 1242, 1243, 1244
1245, 1246, 1247, 1248, 1249, 1250, 1251, 1252, 1253, 1254, 1255, 1256, 1257, 1258, 1259, 1260
1261, 1262, 1263, 1264, 1265, 1266, 1267, 1268, 1269, 1270, 1271, 1272, 1273, 1274, 1275, 1276
1277, 1278, 1279, 1280, 1281, 1282, 1283, 1284, 1285, 1286, 1287, 1288, 3413, 3414, 3415, 3416
3417, 3418, 3419, 3420, 3421, 3422, 3430, 3431, 3435, 3436, 3437, 5440, 5469, 5473, 5530, 5548
5551, 5553, 5555, 5557, 5558, 5560, 7029, 7036, 7090, 7093, 7094, 7096, 7099, 7101, 7102, 8281
8282, 9181, 13058, 13059, 13060, 13061, 13062, 13063, 13064, 13065, 13066, 13067, 13068, 13069, 13070, 13071
13072, 13073, 13074, 13075, 13076, 13077, 13078, 13079, 13080, 13081, 13082, 13083, 13084, 13085, 13086, 13087
13088, 13089, 13090, 13091, 13092, 13093, 13094, 13095, 13096, 13097, 13098, 13099, 13100, 13101, 13102, 13103
13104, 13105, 13106, 13107, 13108, 13109, 13110, 13111, 13112, 13113, 13114, 13115, 13116, 13117, 13118, 13119
13120, 13121, 13122, 13123, 13124, 13125, 13126, 13127, 13128, 13129, 13130, 13131, 13132, 13133, 13134, 13135
13136, 13137, 13138, 13139, 13140, 13141, 13142, 13143, 13144, 13145, 13146, 13147, 13148, 13149, 13150, 13151
13152, 13153, 13154, 13155, 13156, 13157, 13158, 13159, 13160, 13161, 13162, 13163, 13164, 13165, 13166, 13167
13168, 13169, 13170, 13171, 13172, 13173, 13174, 13175, 13176, 13177, 13178, 13179, 13180, 13181, 13182, 13183
** ... 103 like lines cut
*NSET, NSET=NTOP
4, 5, 6, 1056, 1057, 1058, 1059, 1060, 1061, 1062, 1063, 1064, 1065, 1066, 1067, 1068
1069, 1070, 1071, 1072, 1073, 1074, 1075, 1076, 1077, 1078, 1079, 1080, 1081, 1082, 1083, 1084
1085, 1086, 1087, 1088, 1089, 1090, 1091, 1092, 1093, 1094, 1095, 1096, 1097, 1098, 1099, 1100
1101, 1102, 1103, 1104, 1105, 1106, 1107, 1108, 1109, 1110, 1111, 1112, 1113, 1114, 1115, 1116
1117, 1118, 1119, 1120, 1121, 1122, 1123, 1124, 1125, 1126, 1127, 1128, 1129, 1130, 1131, 1132
1133, 1134, 1135, 1136, 1137, 1138, 1139, 1140, 1141, 1142, 1143, 1144, 1145, 1146, 1147, 1148
1149, 1150, 1151, 1152, 1153, 1154, 1158, 1159, 1160, 1161, 1162, 1163, 1164, 1165, 1166, 1167
1168, 1169, 1170, 1171, 1172, 1173, 1174, 1175, 1176, 1177, 1178, 1289, 1290, 1291, 3290, 3291
3292, 3293, 3294, 3295, 3296, 3297, 3298, 3299, 3342, 3432, 3433, 3434, 3508, 5470, 5471, 6863
6865, 6867, 6869, 7002, 8102, 8104, 8106, 8107, 8109, 9109, 9121, 9330, 9331, 13229, 13230, 13231
13232, 13233, 13234, 13235, 13236, 13237, 13238, 13239, 13240, 13241, 13242, 13243, 13244, 13245, 13246, 13247
13248, 13249, 13250, 13251, 13252, 13253, 13254, 13255, 13256, 13257, 13258, 13259, 13260, 13261, 13262, 13263
13264, 13265, 13266, 13267, 13268, 13269, 13270, 13271, 13272, 13273, 13274, 13275, 13276, 13277, 13278, 13279
13280, 13281, 13282, 13283, 13284, 13285, 13286, 13287, 13288, 13289, 13290, 13291, 13292, 13293, 13294, 13295
13296, 13297, 13298, 13299, 13300, 13301, 13302, 13303, 13304, 13305, 13306, 13307, 13308, 13309, 13310, 13311
13312, 13313, 13314, 13315, 13316, 13317, 13318, 13319, 13320, 13321, 13322, 13323, 13324, 13325, 13326, 13327
13328, 13329, 13330, 13331, 13332, 13333, 13334, 13335, 13336, 13337, 13338, 13339, 13340, 13341, 13342, 13343
13344, 13345, 13346, 13347, 13348, 13349, 13350, 13351, 13352, 13353, 13354, 13355, 13356, 13357, 13358, 13359
13360, 13361, 13362, 13363, 13364, 13365, 13366, 13367, 13368, 13369, 13370, 13371, 13372, 13373, 13374, 13375
13376, 13377, 13378, 13379, 13380, 13381, 13382, 13383, 13384, 13385, 13386, 13387, 13388, 13389, 13390, 13391
** ... 91 like lines cut
**
*MATERIAL, NAME=SPRING_STEEL
*ELASTIC
177500.0, 0.3
**
*SOLID SECTION, ELSET=EALL, MATERIAL=SPRING_STEEL
**
** Self-contact surface: 25198 exterior faces (free faces only)
*SURFACE, NAME=SPRING_SURF, TYPE=ELEMENT
3, S1
4, S2
5, S1
6, S2
7, S1
9, S2
14, S1
20, S2
23, S1
25, S1
27, S1
28, S2
29, S1
30, S2
33, S2
34, S2
35, S1
38, S2
40, S1
47, S2
** ... 25178 like lines cut
** Contact pair: same surface on both sides = self-contact
*CONTACT PAIR, INTERACTION=COIL_CONTACT, TYPE=SURFACE TO SURFACE
SPRING_SURF, SPRING_SURF
*SURFACE INTERACTION, NAME=COIL_CONTACT
*SURFACE BEHAVIOR, PRESSURE-OVERCLOSURE=HARD
**
** Step 1: Assembly preload  0 -> 11.5 mm  (47.58 mm -> 36.1 mm)
*STEP, NLGEOM, INC=500
*STATIC
0.5, 11.5, 0.5, 0.5
**
** Bottom face: fully fixed
*BOUNDARY
NBOT, 1, 3, 0.0
** Top face: X/Y fixed, Z compressed to preload
NTOP, 1, 2, 0.0
NTOP, 3, 3, -11.5
**
*NODE PRINT, NSET=NBOT, TOTALS=ONLY, FREQUENCY=5
RF
*NODE FILE, FREQUENCY=5
U
*EL FILE, FREQUENCY=5
S
*CONTACT FILE, FREQUENCY=5
CSTRESS, CDISP
**
*END STEP
**
** Step 2: Valve lift  11.5 -> 21.5 mm  (36.1 mm -> 26.1 mm)
*STEP, NLGEOM, INC=1000
*STATIC
0.5, 10.0, 0.5, 0.5
**
*BOUNDARY, OP=NEW
NBOT, 1, 3, 0.0
NTOP, 1, 2, 0.0
NTOP, 3, 3, -21.5
**
*NODE PRINT, NSET=NBOT, TOTALS=ONLY, FREQUENCY=5
RF
*NODE FILE, FREQUENCY=5
U
*EL FILE, FREQUENCY=5
S
*CONTACT FILE, FREQUENCY=5
CSTRESS, CDISP
**
*END STEP
