** ValveSpring FEA - Preload + Valve Lift (2-step, self-contact)
** Drawing A177 053 05 00  |  Material: VD SiCrNi SC  E=177500.0 MPa  nu=0.3
** Step 1: Assembly preload  0 -> 12.2 mm  (48.26 -> 36.1 mm)  F=265 N
** Step 2: Valve lift  12.2 -> 22.2 mm  (36.1 -> 26.1 mm)  F=621 N
**
*INCLUDE, INPUT=ValveSpring_265N_mesh.inp
**
*NSET, NSET=NBOT
1, 2, 3, 6, 9, 10, 13, 14, 15, 16, 17, 18, 19, 20, 21, 22
23, 813, 814, 815, 816, 817, 818, 819, 820, 821, 822, 823, 824, 825, 826, 827
828, 829, 830, 831, 832, 833, 834, 835, 836, 837, 838, 839, 840, 841, 842, 843
844, 845, 846, 847, 848, 849, 850, 851, 852, 853, 854, 2705, 2706, 2707, 2708, 2709
2710, 2711, 2712, 2713, 2714, 2715, 2716, 2717, 2718, 2719, 2720, 2721, 2722, 2723, 2724, 2725
2726, 2727, 2728, 2729, 2730, 2731, 2732, 2733, 2734, 2735, 2736, 2737, 2738, 2739, 2740, 2741
2742, 2743, 2744, 2745, 2746, 2747, 2748, 2749, 2750, 2751, 2752, 2753, 2754, 2755, 2756, 2757
2758, 2759, 2760, 2761, 2762, 2763, 2764, 2765, 2766, 2767, 2768, 2769, 2770, 2771, 2772, 2773
2774, 2775, 2776, 2777, 2778, 2779, 2780, 2781, 2782, 2783, 2784, 2785, 2786, 2787, 2788, 2789
2790, 2791, 2792, 2793, 2794, 2795, 2796, 2797, 2798, 2799, 2800, 2801, 2802, 2803, 2804, 2805
2806, 2807, 2808, 2809, 2810, 2811, 2812, 2813, 2814, 2815, 2816, 2817, 2818, 2819, 2820, 2821
2822, 2823, 2824, 2825, 2826, 2827, 2828, 2829, 2830, 2831, 2832, 2833, 2834, 2835, 2836, 2837
2838, 2839, 2840, 2841, 2842, 2843, 2844, 2845, 2846, 2847, 2848, 2849, 2850, 2851, 2852, 2853
2854, 2855, 2856, 2857, 2858, 2859, 2860, 2861, 2862, 2863, 2864, 2865, 2866, 2867, 2868, 2924
2925, 2926, 2927, 2928, 2929, 2930, 2931, 2932, 2933, 2934, 2935, 2936, 2937, 2938, 2939, 2940
2941, 2942, 2943, 2944, 2945, 2946, 2947, 2948, 2949, 2950, 2951, 2952, 2953, 4092, 4093, 5775
5776, 5778, 6059, 6066, 6096, 6097, 6115, 6116, 6117, 6118, 6119, 6120, 6121, 6122, 6123, 6124
6125, 6126, 6150, 6177, 6223, 6313, 6330, 6446, 6504, 6583, 6613, 6705, 6755, 6787, 6825, 6830
6839, 6841, 6893, 6916, 6918, 6921, 6922, 6923, 6946, 6969, 7116, 7130, 7142, 7168, 7184, 7187
7259, 7285, 7291, 7554, 7579, 7742, 7939, 7940, 7941, 7942, 7943, 9700, 9716, 9717, 9718, 9720
** ... 90 like lines cut
*NSET, NSET=NTOP
4, 5, 7, 8, 11, 12, 24, 25, 26, 27, 28, 29, 30, 31, 32, 33
34, 35, 36, 37, 38, 39, 40, 41, 42, 43, 44, 45, 46, 47, 48, 49
50, 51, 52, 53, 54, 55, 56, 57, 58, 59, 60, 61, 62, 63, 64, 65
66, 67, 68, 69, 70, 71, 1769, 1770, 1771, 1772, 1773, 1774, 1775, 1776, 1777, 1778
1779, 1780, 1781, 1782, 1783, 1784, 1785, 1786, 1787, 1788, 1789, 1790, 1791, 1792, 1793, 1794
1795, 1796, 1797, 1798, 1799, 1800, 1801, 1802, 1803, 1804, 1805, 1806, 1807, 1808, 2869, 2870
2871, 2872, 2873, 2874, 2875, 2876, 2877, 2878, 2879, 2880, 2881, 2882, 2883, 2884, 2885, 2886
2887, 2888, 2889, 2890, 2891, 2892, 2893, 2894, 2895, 2896, 2897, 2898, 2899, 2900, 2901, 2902
2903, 2904, 2905, 2906, 2907, 2908, 2909, 2910, 2911, 2912, 2913, 2914, 2915, 2916, 2917, 2918
2919, 2920, 2921, 2922, 2923, 4034, 4035, 4036, 4037, 4038, 4039, 4040, 4041, 4042, 4043, 4044
4045, 4046, 4047, 4048, 4049, 4050, 4051, 4052, 4053, 4054, 4055, 4056, 4057, 4058, 4059, 4060
4061, 4062, 4063, 4064, 4065, 4066, 4067, 4068, 4069, 4070, 4071, 4072, 4073, 4074, 4075, 4076
4077, 4078, 4079, 4080, 4081, 4082, 4083, 4084, 4085, 4086, 4087, 4088, 4089, 4090, 4091, 4094
4095, 4096, 4097, 4100, 4105, 5847, 5851, 5853, 5854, 5856, 5858, 5863, 5865, 5868, 5875, 5876
5877, 5879, 5883, 5885, 5890, 5891, 5892, 5893, 6258, 6259, 6267, 6270, 6272, 6275, 6276, 6283
6285, 6286, 6287, 6288, 6289, 6290, 6291, 6436, 6491, 6587, 6630, 6635, 6637, 6640, 6645, 6648
6649, 6651, 6656, 6660, 6661, 6665, 6668, 6844, 6886, 6894, 6924, 6925, 7002, 7035, 7065, 7280
7472, 7478, 7490, 7513, 7922, 8006, 8007, 8019, 8036, 8037, 8042, 8043, 8044, 9813, 9814, 9821
9822, 9823, 9824, 9825, 9826, 9827, 9828, 9829, 9830, 9973, 9997, 10023, 10293, 10298, 10312, 10323
10325, 10341, 10436, 10470, 10485, 10539, 10547, 10548, 10690, 10697, 10753, 10765, 10784, 10800, 10807, 10958
** ... 74 like lines cut
**
*MATERIAL, NAME=SPRING_STEEL
*ELASTIC
177500.0, 0.3
**
*SOLID SECTION, ELSET=EVOLUMES, MATERIAL=SPRING_STEEL
**
** Self-contact surface: 41188 exterior faces (free faces only)
*SURFACE, NAME=SPRING_SURF, TYPE=ELEMENT
32, S2
132, S3
140, S3
175, S4
186, S3
211, S3
225, S2
253, S3
268, S3
294, S2
295, S2
420, S3
425, S3
466, S4
505, S3
515, S3
539, S2
546, S2
562, S3
573, S3
** ... 41168 like lines cut
** Contact pair: same surface on both sides = self-contact
*CONTACT PAIR, INTERACTION=COIL_CONTACT, TYPE=SURFACE TO SURFACE
SPRING_SURF, SPRING_SURF
*SURFACE INTERACTION, NAME=COIL_CONTACT
*SURFACE BEHAVIOR, PRESSURE-OVERCLOSURE=HARD
**
** Step 1: Assembly preload  0 -> 12.2 mm  (48.26 mm -> 36.1 mm)
*STEP, NLGEOM, INC=500
*STATIC
0.5, 12.2, 0.5, 0.5
**
** Bottom face: fully fixed
*BOUNDARY
NBOT, 1, 3, 0.0
** Top face: X/Y fixed, Z compressed to preload
NTOP, 1, 2, 0.0
NTOP, 3, 3, -12.2
**
*NODE PRINT, NSET=NBOT, TOTALS=ONLY, FREQUENCY=5
RF
*NODE FILE, FREQUENCY=5
U
*EL FILE, FREQUENCY=5
S
*CONTACT FILE, FREQUENCY=5
CSTRESS, CDISP
**
*END STEP
**
** Step 2: Valve lift  12.2 -> 22.2 mm  (36.1 mm -> 26.1 mm)
*STEP, NLGEOM, INC=1000
*STATIC
0.5, 10.0, 0.5, 0.5
**
*BOUNDARY, OP=NEW
NBOT, 1, 3, 0.0
NTOP, 1, 2, 0.0
NTOP, 3, 3, -22.2
**
*NODE PRINT, NSET=NBOT, TOTALS=ONLY, FREQUENCY=5
RF
*NODE FILE, FREQUENCY=5
U
*EL FILE, FREQUENCY=5
S
*CONTACT FILE, FREQUENCY=5
CSTRESS, CDISP
**
*END STEP
