** ValveSpring FEA - Preload + Valve Lift (2-step, self-contact)
** Drawing A177 053 05 00  |  Material: VD SiCrNi SC  E=273131.0 MPa  nu=0.3
** Step 1: Assembly preload  0 -> 8.3 mm  (39.887 -> 31.6 mm)  F=249 N
** Step 2: Valve lift  8.3 -> 18.3 mm  (31.6 -> 21.6 mm)  F=621 N
**
*INCLUDE, INPUT=ValveSpring_oval_mesh.inp
**
*NSET, NSET=NBOT
1, 3, 6, 10, 12, 13, 14, 15, 16, 17, 314, 315, 316, 317, 318, 616
617, 618, 619, 620, 621, 622, 623, 624, 625, 626, 627, 628, 629, 630, 631, 632
633, 634, 635, 636, 637, 638, 639, 640, 641, 642, 643, 644, 645, 646, 647, 648
649, 650, 651, 652, 653, 654, 655, 656, 657, 658, 659, 660, 661, 662, 663, 664
665, 666, 667, 668, 669, 670, 671, 672, 673, 674, 675, 676, 677, 678, 679, 680
681, 682, 683, 684, 685, 686, 687, 688, 689, 690, 691, 692, 693, 694, 695, 696
697, 698, 699, 700, 701, 702, 703, 704, 705, 706, 707, 708, 709, 710, 711, 712
713, 714, 1088, 1089, 1090, 1091, 1092, 1093, 1508, 1509, 1510, 1511, 1512, 1513, 1514, 1515
1516, 1517, 1518, 1519, 2233, 2234, 2235, 2236, 2237, 2238, 2239, 2240, 2241, 2242, 2243, 2244
2959, 2960, 2961, 2962, 2963, 2964, 2965, 2966, 2967, 2968, 2969, 2970, 2971, 2972, 2973, 2974
2975, 2976, 2977, 2978, 2979, 2980, 2981, 2982, 2983, 2984, 2985, 2986, 2987, 2988, 2989, 2990
2991, 2992, 2993, 2994, 2995, 2996, 2997, 2998, 2999, 3000, 3001, 3002, 3003, 3004, 3005, 3006
3007, 3008, 3009, 3010, 3011, 3012, 3013, 3014, 3015, 3016, 3017, 3169, 3170, 3171, 3172, 3173
3174, 3175, 3176, 3177, 3178, 3179, 3180, 3181, 3182, 3183, 3184, 3185, 3186, 3187, 3188, 3189
3190, 3191, 3192, 3193, 3194, 3195, 3196, 3197, 3198, 3199, 3203, 3822, 3823, 3824, 3825, 3826
3827, 3828, 3829, 3830, 3831, 3832, 3833, 3834, 3835, 3836, 3837, 3838, 3839, 3840, 3841, 3842
3843, 3844, 3845, 3846, 3847, 3848, 3849, 3850, 3851, 3852, 3853, 3854, 3855, 3856, 3857, 3858
3859, 3860, 3862, 3865, 3870, 3876, 3896, 3898, 3899, 3908, 3996, 3998, 4074, 4141, 4273, 4804
4805, 4937, 5093, 5095, 5146, 5148, 5856, 5860, 5862, 5893, 5894, 5906, 5911, 5912, 5945, 5959
5960, 5961, 5965, 5989, 6040, 6076, 6077, 6083, 6171, 6310, 6312, 6322, 6395, 6396, 6435, 6498
** ... 122 like lines cut
*NSET, NSET=NTOP
4, 5, 7, 8, 9, 1083, 1084, 1085, 1086, 1087, 1463, 1464, 1465, 1466, 1467, 1468
1469, 1470, 1471, 1472, 1473, 1474, 1475, 1476, 1477, 1478, 1479, 1480, 1481, 1482, 1483, 1484
1485, 1486, 1487, 1488, 1489, 1490, 1491, 1492, 1493, 1494, 1495, 1496, 1497, 1498, 1499, 1500
1507, 2224, 2225, 2226, 2227, 2228, 2229, 2230, 2231, 2232, 2950, 2951, 2952, 2953, 2954, 2955
2956, 2957, 2958, 3018, 3020, 3023, 3024, 3025, 3026, 3027, 3028, 3029, 3030, 3031, 3032, 3033
3034, 3035, 3036, 3037, 3038, 3039, 3040, 3041, 3042, 3043, 3044, 3045, 3046, 3047, 3048, 3049
3050, 3051, 3052, 3053, 3054, 3055, 3056, 3057, 3058, 3059, 3060, 3061, 3062, 3063, 3064, 3065
3066, 3067, 3068, 3069, 3070, 3071, 3072, 3073, 3074, 3075, 3076, 3077, 3078, 3079, 3080, 3081
3082, 3083, 3084, 3085, 3086, 3087, 3088, 3089, 3090, 3091, 3092, 3093, 3094, 3095, 3096, 3097
3098, 3099, 3100, 3101, 3102, 3103, 3104, 3105, 3106, 3107, 3108, 3109, 3110, 3111, 3112, 3113
3114, 3115, 3116, 3117, 3118, 3119, 3120, 3121, 3122, 3123, 3124, 3125, 3126, 3127, 3128, 3129
3130, 3131, 3132, 3133, 3134, 3135, 3136, 3137, 3138, 3139, 3140, 3141, 3142, 3143, 3144, 3145
3146, 3147, 3148, 3149, 3150, 3151, 3152, 3153, 3154, 3155, 3156, 3157, 3158, 3159, 3160, 3161
3162, 3163, 3164, 3165, 3166, 3167, 3168, 3510, 3511, 3512, 3513, 3818, 3819, 3820, 3821, 3968
4233, 5863, 6821, 7134, 7316, 7567, 7820, 7825, 7877, 7878, 7879, 7880, 7882, 7883, 7884, 7886
7887, 7888, 12721, 12727, 12728, 12735, 12737, 12739, 12740, 12741, 12743, 12744, 12745, 12746, 12747, 12749
12750, 12753, 12754, 12755, 12756, 12759, 12760, 12761, 12763, 12764, 12765, 12766, 12768, 12769, 12771, 12772
12774, 12775, 12776, 12778, 12779, 12781, 12782, 12784, 12785, 12787, 12788, 12789, 12791, 12793, 12794, 12797
12799, 21280, 21313, 21334, 21858, 22037, 22049, 22152, 22322, 22585, 22769, 22770, 22771, 22772, 22773, 22774
22775, 22776, 26967, 26968, 26971, 27018, 27019, 27020, 27022, 27023, 27024, 27026, 27027, 27029, 27030, 27032
** ... 88 like lines cut
**
*MATERIAL, NAME=SPRING_STEEL
*ELASTIC
273131.0, 0.3
**
*SOLID SECTION, ELSET=EVOLUMES, MATERIAL=SPRING_STEEL
**
** Self-contact surface: 13969 exterior faces (free faces only)
*SURFACE, NAME=SPRING_SURF, TYPE=ELEMENT
27766, S1
27771, S1
27775, S1
27777, S1
27797, S1
27798, S1
27801, S1
27803, S1
27806, S1
27808, S1
27813, S1
27840, S1
27842, S1
27850, S1
27855, S1
27858, S1
27861, S1
27865, S1
27866, S1
27869, S1
** ... 13949 like lines cut
** Contact pair: same surface on both sides = self-contact
*CONTACT PAIR, INTERACTION=COIL_CONTACT, TYPE=SURFACE TO SURFACE
SPRING_SURF, SPRING_SURF
*SURFACE INTERACTION, NAME=COIL_CONTACT
*SURFACE BEHAVIOR, PRESSURE-OVERCLOSURE=LINEAR
50.
**
** Step 1: Assembly preload  0 -> 8.3 mm  (39.887 mm -> 31.6 mm)
*STEP, NLGEOM, INC=500
*STATIC
0.5, 8.3, 0.5, 0.5
**
** Bottom face: fully fixed
*BOUNDARY
NBOT, 1, 3, 0.0
** Top face: X/Y fixed, Z compressed to preload
NTOP, 1, 2, 0.0
NTOP, 3, 3, -8.3
**
*NODE PRINT, NSET=NBOT, TOTALS=ONLY, FREQUENCY=5
RF
*NODE FILE, FREQUENCY=5
U
*EL FILE, FREQUENCY=5
S
*CONTACT FILE, FREQUENCY=5
CSTRESS, CDISP
**
*END STEP
**
** Step 2: Valve lift  8.3 -> 18.3 mm  (31.6 mm -> 21.6 mm)
*STEP, NLGEOM, INC=1000
*STATIC
0.5, 10.0, 0.5, 0.5
**
*BOUNDARY, OP=NEW
NBOT, 1, 3, 0.0
NTOP, 1, 2, 0.0
NTOP, 3, 3, -18.3
**
*NODE PRINT, NSET=NBOT, TOTALS=ONLY, FREQUENCY=5
RF
*NODE FILE, FREQUENCY=5
U
*EL FILE, FREQUENCY=5
S
*CONTACT FILE, FREQUENCY=5
CSTRESS, CDISP
**
*END STEP
