** ValveSpring FEA - Preload + Valve Lift (2-step, self-contact)
** Drawing A177 053 05 00  |  Material: VD SiCrNi SC  E=273131.0 MPa  nu=0.3
** Step 1: Assembly preload  0 -> 7.1 mm  (38.717 -> 31.6 mm)  F=249 N
** Step 2: Valve lift  7.1 -> 17.1 mm  (31.6 -> 21.6 mm)  F=621 N
**
*INCLUDE, INPUT=ValveSpring_mesh.inp
**
*NSET, NSET=NBOT
1, 2, 3, 7, 12, 13, 14, 15, 16, 17, 18, 19, 20, 21, 22, 23
24, 25, 26, 27, 28, 29, 30, 31, 32, 33, 34, 35, 36, 37, 38, 39
40, 41, 42, 43, 44, 45, 46, 47, 48, 49, 50, 51, 52, 53, 54, 55
56, 57, 58, 59, 60, 61, 62, 63, 64, 65, 66, 67, 68, 1317, 1318, 1319
1320, 1321, 1322, 1323, 1324, 1325, 1326, 1327, 1328, 1329, 1330, 1331, 1332, 1333, 1334, 1335
1336, 1337, 1338, 1339, 1340, 1341, 1342, 1343, 1344, 1345, 1346, 1347, 1348, 1349, 1350, 1351
1352, 1353, 1354, 1355, 1356, 1357, 1358, 1359, 1360, 1361, 1362, 1363, 1364, 1365, 1366, 1367
1368, 1369, 1370, 1371, 1372, 1373, 1374, 1375, 1376, 1377, 1378, 1379, 1380, 1381, 1382, 1383
1384, 1385, 1386, 1387, 1388, 1389, 1390, 1391, 1392, 1393, 1394, 1395, 1396, 1397, 1398, 1399
1400, 1401, 1402, 1403, 1404, 1405, 1406, 1407, 1408, 1409, 1410, 1411, 1412, 1413, 1414, 1415
1416, 1417, 1418, 1419, 1420, 1421, 1422, 1423, 1424, 1425, 1426, 1427, 1428, 1429, 1430, 1431
1432, 1433, 1434, 1435, 1436, 1437, 1438, 1439, 1440, 1441, 1442, 1443, 1444, 1445, 1446, 1447
1448, 1449, 1450, 1451, 1452, 1453, 1454, 1455, 1456, 1457, 1458, 1459, 1460, 1461, 1462, 1463
1464, 1465, 1466, 1467, 1468, 1469, 1470, 1476, 1481, 1482, 1483, 1484, 1485, 1486, 1487, 1488
1489, 1490, 1491, 1492, 1493, 1497, 1498, 1499, 1500, 1558, 1561, 1563, 3766, 3767, 3768, 3769
3770, 3771, 3772, 3773, 3774, 3775, 3776, 3777, 3778, 3812, 3813, 3814, 3815, 3816, 3817, 3818
3819, 3820, 3821, 3822, 3823, 3824, 3825, 3826, 3827, 3828, 3829, 3830, 3831, 3832, 3833, 3834
3835, 3836, 3837, 3838, 3839, 3840, 3841, 3842, 3843, 3844, 3845, 3846, 3847, 3848, 3849, 3850
3851, 3852, 3853, 3854, 3855, 3856, 3857, 3858, 3859, 3860, 3861, 3862, 3863, 3864, 3870, 3871
3954, 5987, 6028, 6130, 6131, 6132, 6174, 6189, 6191, 6240, 8442, 8456, 8458, 8469, 8541, 8566
** ... 313 like lines cut
*NSET, NSET=NTOP
4, 5, 6, 1147, 1148, 1149, 1150, 1151, 1152, 1153, 1154, 1155, 1156, 1157, 1158, 1159
1160, 1161, 1162, 1163, 1164, 1165, 1166, 1167, 1168, 1169, 1170, 1171, 1172, 1173, 1174, 1175
1176, 1177, 1178, 1179, 1180, 1181, 1182, 1183, 1184, 1185, 1186, 1187, 1188, 1189, 1190, 1191
1192, 1193, 1194, 1195, 1196, 1197, 1198, 1199, 1200, 1201, 1202, 1203, 1204, 1205, 1206, 1207
1208, 1209, 1210, 1211, 1212, 1213, 1214, 1215, 1216, 1217, 1218, 1219, 1220, 1221, 1222, 1223
1224, 1225, 1226, 1227, 1228, 1229, 1230, 1231, 1232, 1233, 1234, 1235, 1236, 1237, 1238, 1239
1240, 1241, 1242, 1243, 1244, 1245, 1246, 1247, 1248, 1249, 1250, 1251, 1252, 1253, 1254, 1255
1256, 1257, 1258, 1259, 1260, 1261, 1262, 1263, 1264, 1265, 1266, 1267, 1268, 1269, 1270, 1271
1272, 1273, 1274, 1275, 1276, 1277, 1278, 1279, 1280, 1281, 1286, 1287, 1288, 1289, 1290, 1291
1292, 1293, 1294, 1295, 1296, 1297, 1298, 1299, 1300, 1301, 1302, 1303, 1304, 1305, 1306, 1307
1308, 1309, 1310, 1311, 1312, 1313, 1314, 1315, 1316, 1471, 1472, 1473, 1474, 1475, 3621, 3656
3657, 3658, 3659, 3660, 3661, 3662, 3663, 3664, 3665, 3666, 3667, 3668, 3669, 3670, 3671, 3672
3673, 3674, 3675, 3676, 3677, 3678, 3679, 3680, 3681, 3682, 3683, 3684, 3685, 3686, 3687, 3688
3689, 3690, 3691, 3721, 3722, 3723, 3724, 3725, 3726, 3727, 3728, 3729, 3730, 3736, 3737, 3738
3739, 3740, 3741, 3742, 3743, 3744, 3745, 3746, 3747, 3751, 3752, 3867, 3868, 3869, 5943, 5949
5966, 5968, 5969, 6185, 6186, 8187, 8189, 8208, 8409, 8443, 8466, 8467, 8911, 10407, 10409, 10411
10413, 10415, 10417, 10419, 10421, 10423, 10425, 10644, 10675, 10714, 12614, 12616, 12618, 12620, 12622, 12624
12626, 12628, 12630, 12632, 12634, 12827, 14761, 14763, 14765, 14767, 14769, 14771, 14773, 14775, 14777, 14779
14865, 16834, 16836, 16838, 16840, 16842, 25260, 25261, 25262, 25263, 25264, 25265, 25266, 25267, 25268, 25269
25270, 25271, 25272, 25273, 25274, 25275, 25276, 25277, 25278, 25279, 25280, 25281, 25282, 25283, 25284, 25285
** ... 255 like lines cut
**
*MATERIAL, NAME=SPRING_STEEL
*ELASTIC
273131.0, 0.3
**
*SOLID SECTION, ELSET=EALL, MATERIAL=SPRING_STEEL
**
** Self-contact surface: 28808 exterior faces (free faces only)
*SURFACE, NAME=SPRING_SURF, TYPE=ELEMENT
1, S1
3, S2
7, S1
9, S2
12, S1
16, S1
22, S1
25, S2
27, S2
37, S1
49, S2
52, S1
53, S2
57, S1
59, S2
62, S1
72, S2
78, S2
85, S2
88, S1
** ... 28788 like lines cut
** Contact pair: same surface on both sides = self-contact
*CONTACT PAIR, INTERACTION=COIL_CONTACT, TYPE=SURFACE TO SURFACE
SPRING_SURF, SPRING_SURF
*SURFACE INTERACTION, NAME=COIL_CONTACT
*SURFACE BEHAVIOR, PRESSURE-OVERCLOSURE=LINEAR
50.
**
** Step 1: Assembly preload  0 -> 7.1 mm  (38.717 mm -> 31.6 mm)
*STEP, NLGEOM, INC=500
*STATIC
0.5, 7.1, 0.5, 0.5
**
** Bottom face: fully fixed
*BOUNDARY
NBOT, 1, 3, 0.0
** Top face: X/Y fixed, Z compressed to preload
NTOP, 1, 2, 0.0
NTOP, 3, 3, -7.1
**
*NODE PRINT, NSET=NBOT, TOTALS=ONLY, FREQUENCY=5
RF
*NODE FILE, FREQUENCY=5
U
*EL FILE, FREQUENCY=5
S
*CONTACT FILE, FREQUENCY=5
CSTRESS, CDISP
**
*END STEP
**
** Step 2: Valve lift  7.1 -> 17.1 mm  (31.6 mm -> 21.6 mm)
*STEP, NLGEOM, INC=1000
*STATIC
0.5, 10.0, 0.5, 0.5
**
*BOUNDARY, OP=NEW
NBOT, 1, 3, 0.0
NTOP, 1, 2, 0.0
NTOP, 3, 3, -17.1
**
*NODE PRINT, NSET=NBOT, TOTALS=ONLY, FREQUENCY=5
RF
*NODE FILE, FREQUENCY=5
U
*EL FILE, FREQUENCY=5
S
*CONTACT FILE, FREQUENCY=5
CSTRESS, CDISP
**
*END STEP
