** ValveSpring FEA - Preload + Valve Lift (2-step, self-contact)
** Drawing A177 053 05 00  |  Material: VD SiCrNi SC  E=273131.0 MPa  nu=0.3
** Step 1: Assembly preload  0 -> 7.9 mm  (39.471 -> 31.6 mm)  F=249 N
** Step 2: Valve lift  7.9 -> 17.9 mm  (31.6 -> 21.6 mm)  F=621 N
**
*INCLUDE, INPUT=ValveSpring_oval_mesh.inp
**
*NSET, NSET=NBOT
1, 3, 6, 10, 12, 13, 14, 15, 16, 17, 18, 19, 20, 21, 22, 23
24, 25, 26, 27, 28, 929, 930, 931, 932, 933, 934, 935, 936, 937, 938, 939
940, 941, 942, 943, 944, 945, 946, 947, 948, 949, 950, 951, 952, 953, 954, 955
956, 957, 958, 959, 960, 961, 962, 963, 964, 965, 966, 967, 968, 969, 970, 971
972, 973, 974, 975, 976, 977, 978, 979, 980, 981, 982, 983, 984, 985, 986, 987
988, 989, 990, 991, 992, 993, 994, 995, 996, 997, 998, 999, 1000, 1001, 1002, 1003
1004, 1005, 1006, 1007, 1008, 1009, 1010, 1011, 1012, 1013, 1014, 1015, 1016, 1017, 1018, 1019
1020, 1021, 1022, 1023, 1024, 1025, 1026, 1027, 1028, 1029, 1030, 1031, 1032, 1033, 1034, 1035
1036, 2742, 2743, 2744, 2745, 2746, 2747, 2748, 2749, 2750, 2751, 2752, 2753, 2754, 2755, 2756
2757, 2758, 2759, 2760, 2761, 2762, 4011, 4012, 4013, 4014, 4015, 4016, 4017, 4018, 4019, 4020
4021, 4022, 4023, 4024, 4025, 4026, 4027, 4028, 4029, 4030, 4031, 4032, 4033, 4034, 4035, 4036
4037, 4038, 4039, 4040, 4041, 4042, 4043, 4044, 4045, 4046, 4047, 4048, 4049, 4050, 4051, 4052
4053, 4054, 4055, 4056, 4057, 4058, 4059, 4060, 4061, 4062, 4063, 4064, 4065, 4206, 4207, 4208
4209, 4210, 4211, 4212, 4213, 4214, 4215, 4216, 4217, 4218, 4219, 4220, 4221, 4222, 4223, 4224
4225, 4226, 4227, 4228, 4229, 4230, 4231, 4232, 4233, 4234, 4235, 4236, 4237, 4238, 4239, 5247
5248, 5249, 5250, 5251, 5252, 5253, 5254, 5255, 5256, 5257, 5258, 5259, 5260, 5261, 5262, 5263
5264, 5265, 5266, 5267, 5268, 5269, 5270, 5271, 5272, 5273, 5274, 5275, 5276, 5277, 5278, 5279
5280, 5281, 5282, 5283, 5284, 5285, 5286, 5288, 5289, 5290, 5291, 5292, 5293, 5294, 5295, 5296
5297, 5298, 5299, 5300, 5301, 5302, 5303, 6194, 6195, 6196, 6197, 6198, 6199, 6200, 6201, 6202
6203, 6204, 6205, 6206, 6207, 6208, 6209, 6210, 6211, 6212, 6213, 6214, 6215, 6216, 6217, 6218
** ... 420 like lines cut
*NSET, NSET=NTOP
4, 5, 7, 8, 9, 2670, 2671, 2672, 2673, 2674, 2675, 2676, 2677, 2678, 2679, 2680
2681, 2682, 2683, 2684, 2685, 2686, 2687, 2688, 2689, 2690, 2691, 2692, 2693, 2694, 2695, 2696
2697, 2698, 2699, 2700, 2701, 2702, 2703, 2704, 2705, 2706, 2707, 2708, 2709, 2710, 2711, 2712
2713, 2714, 2715, 2716, 2717, 2718, 2719, 2720, 2721, 2722, 2723, 2724, 2725, 2726, 2727, 2728
2729, 2730, 2731, 2732, 2733, 2734, 2735, 2736, 2737, 2738, 2741, 3996, 3997, 3998, 3999, 4000
4001, 4002, 4003, 4004, 4005, 4006, 4007, 4008, 4009, 4010, 4066, 4068, 4069, 4070, 4071, 4072
4073, 4074, 4075, 4076, 4077, 4078, 4079, 4080, 4081, 4082, 4083, 4084, 4085, 4086, 4087, 4088
4089, 4090, 4091, 4092, 4093, 4094, 4095, 4096, 4097, 4098, 4099, 4100, 4101, 4102, 4103, 4104
4105, 4106, 4107, 4108, 4109, 4110, 4111, 4112, 4113, 4114, 4115, 4116, 4117, 4118, 4119, 4120
4121, 4122, 4123, 4124, 4125, 4126, 4127, 4128, 4129, 4130, 4131, 4132, 4133, 4134, 4135, 4136
4137, 4138, 4139, 4140, 4141, 4142, 4143, 4144, 4145, 4146, 4147, 4148, 4149, 4150, 4151, 4152
4153, 4154, 4155, 4156, 4157, 4158, 4159, 4160, 4161, 4162, 4163, 4164, 4165, 4166, 4167, 4168
4169, 4170, 4171, 4172, 4173, 4174, 4175, 4176, 4177, 4178, 4179, 4180, 4181, 4182, 4183, 4184
4185, 4186, 4187, 4188, 4189, 4190, 4191, 4192, 4193, 4194, 4195, 4196, 4197, 4198, 4199, 4200
4201, 4202, 4203, 4204, 4205, 5234, 5235, 5236, 5237, 5238, 5239, 5240, 5241, 5242, 5243, 5244
5245, 5246, 7857, 7858, 7859, 7860, 7861, 7862, 7863, 7864, 7865, 7866, 7867, 7868, 7869, 7870
7871, 7872, 7873, 7874, 7875, 7876, 7877, 7878, 7879, 7880, 7881, 7882, 7883, 7884, 7885, 7886
7887, 7888, 7889, 7890, 7891, 7892, 7893, 7894, 7895, 7896, 7897, 7898, 7899, 7901, 7902, 7903
7904, 7905, 7906, 7907, 10419, 10433, 10507, 10508, 10509, 16315, 16316, 16317, 16339, 16341, 16342, 16343
16344, 16345, 16346, 16347, 16348, 16349, 16350, 16351, 16352, 16353, 16354, 16355, 16356, 16371, 20044, 20045
** ... 365 like lines cut
**
*MATERIAL, NAME=SPRING_STEEL
*ELASTIC
273131.0, 0.3
**
*SOLID SECTION, ELSET=EALL, MATERIAL=SPRING_STEEL
**
** Self-contact surface: 66312 exterior faces (free faces only)
*SURFACE, NAME=SPRING_SURF, TYPE=ELEMENT
6, S2
14, S1
15, S2
23, S2
24, S2
25, S2
27, S1
34, S1
38, S2
41, S1
47, S2
54, S1
57, S1
69, S2
71, S2
75, S1
78, S1
81, S1
82, S1
83, S2
** ... 66292 like lines cut
** Contact pair: same surface on both sides = self-contact
*CONTACT PAIR, INTERACTION=COIL_CONTACT, TYPE=SURFACE TO SURFACE
SPRING_SURF, SPRING_SURF
*SURFACE INTERACTION, NAME=COIL_CONTACT
*SURFACE BEHAVIOR, PRESSURE-OVERCLOSURE=EXPONENTIAL
0.1, 0.
**
** Step 1: Assembly preload  0 -> 7.9 mm  (39.471 mm -> 31.6 mm)
*STEP, NLGEOM=YES, INC=500
*STATIC
0.5, 7.9, 0.001, 0.5
*CONTACT CONTROLS, STABILIZE=0.001
**
** Bottom face: fully fixed
*BOUNDARY
NBOT, 1, 3, 0.0
** Top face: X/Y fixed, Z compressed to preload
NTOP, 1, 2, 0.0
NTOP, 3, 3, -7.9
**
*NODE PRINT, NSET=NBOT, TOTALS=YES, FREQUENCY=5
RF
**
*OUTPUT, FIELD, FREQUENCY=5
*NODE OUTPUT
U, RF
*ELEMENT OUTPUT
S, MISES
*CONTACT OUTPUT
CSTRESS, CDISP
**
*END STEP
**
** Step 2: Valve lift  7.9 -> 17.9 mm  (31.6 mm -> 21.6 mm)
*STEP, NLGEOM=YES, INC=1000
*STATIC
0.5, 10.0, 0.001, 0.5
*CONTACT CONTROLS, STABILIZE=0.001
**
*BOUNDARY, OP=NEW
NBOT, 1, 3, 0.0
NTOP, 1, 2, 0.0
NTOP, 3, 3, -17.9
**
*NODE PRINT, NSET=NBOT, TOTALS=YES, FREQUENCY=5
RF
**
*OUTPUT, FIELD, FREQUENCY=5
*NODE OUTPUT
U, RF
*ELEMENT OUTPUT
S, MISES
*CONTACT OUTPUT
CSTRESS, CDISP
**
*END STEP
